Version 4
SHEET 1 880 680
WIRE 272 80 256 80
WIRE 256 96 256 80
WIRE 256 96 64 96
WIRE 272 112 256 112
WIRE 256 160 256 112
WIRE 256 160 64 160
SYMBOL cap 48 96 R0
SYMATTR InstName C1
SYMBOL OpAmps\\opamp 240 336 R180
SYMATTR InstName U2
SYMBOL OpAmps\\opamp -48 352 R180
SYMATTR InstName U3
SYMBOL OpAmps\\RH101A 304 32 R0
SYMATTR InstName U4
