Version 4
SHEET 1 880 680
WIRE 64 96 0 96
WIRE 224 112 128 112
WIRE 336 112 224 112
WIRE 512 112 416 112
WIRE 608 112 512 112
WIRE 752 112 688 112
WIRE 64 128 -80 128
WIRE 0 208 0 96
WIRE 224 208 224 192
WIRE 224 208 0 208
WIRE 224 224 224 208
WIRE 512 256 512 112
WIRE 576 256 512 256
WIRE 752 272 752 112
WIRE 752 272 640 272
WIRE 864 272 752 272
WIRE 576 288 528 288
WIRE 224 320 224 304
WIRE 224 320 0 320
WIRE 224 336 224 320
WIRE 0 432 0 320
WIRE 64 432 0 432
WIRE 224 448 224 416
WIRE 224 448 128 448
WIRE 336 448 224 448
WIRE 512 448 416 448
WIRE 528 448 528 288
WIRE 528 448 512 448
WIRE 64 464 -96 464
WIRE 512 480 512 448
WIRE 512 640 512 560
FLAG 512 640 0
SYMBOL TL074 96 112 R0
SYMATTR InstName U2
SYMBOL TL074 96 448 R0
SYMATTR InstName U3
SYMBOL TL074 608 272 R0
SYMATTR InstName U4
SYMBOL res 208 96 R0
SYMATTR InstName R1
SYMATTR Value 25k
SYMBOL res 208 208 R0
SYMATTR InstName R2
SYMATTR Value 10k
SYMBOL res 208 320 R0
SYMATTR InstName R3
SYMATTR Value 25k
SYMBOL res 432 96 R90
WINDOW 0 0 56 VBottom 2
WINDOW 3 32 56 VTop 2
SYMATTR InstName R4
SYMATTR Value 10K
SYMBOL res 704 96 R90
WINDOW 0 0 56 VBottom 2
WINDOW 3 32 56 VTop 2
SYMATTR InstName R5
SYMATTR Value 10k
SYMBOL res 432 432 R90
WINDOW 0 0 56 VBottom 2
WINDOW 3 32 56 VTop 2
SYMATTR InstName R6
SYMATTR Value 10k
SYMBOL res 496 464 R0
SYMATTR InstName R7
SYMATTR Value 10k
