Version 4
SHEET 1 2084 680
WIRE -816 -208 -880 -208
WIRE -368 -208 -816 -208
WIRE 112 -208 -368 -208
WIRE 384 -208 384 -240
WIRE 384 -208 112 -208
WIRE 736 -208 384 -208
WIRE 1344 -208 736 -208
WIRE -880 -112 -880 -208
WIRE -912 -96 -976 -96
WIRE -752 -80 -848 -80
WIRE -640 -80 -752 -80
WIRE -544 -80 -560 -80
WIRE -464 -80 -544 -80
WIRE -336 -80 -464 -80
WIRE -224 -80 -256 -80
WIRE -912 -64 -1360 -64
WIRE 1104 -64 1040 -64
WIRE 1280 -64 1184 -64
WIRE -544 -32 -544 -80
WIRE -880 -16 -880 -48
WIRE -880 -16 -1168 -16
WIRE -16 -16 -128 -16
WIRE 240 -16 64 -16
WIRE -976 16 -976 -96
WIRE -752 16 -752 0
WIRE -752 16 -976 16
WIRE 528 16 368 16
WIRE 864 16 592 16
WIRE 960 16 928 16
WIRE 1040 16 1040 -64
WIRE 1040 16 1024 16
WIRE 1072 16 1040 16
WIRE 1216 16 1136 16
WIRE -752 32 -752 16
WIRE 112 32 112 -208
WIRE -368 48 -368 -208
WIRE 80 48 0 48
WIRE 736 48 736 -208
WIRE 1344 48 1344 -208
WIRE -544 64 -544 48
WIRE -496 64 -544 64
WIRE -464 64 -464 -80
WIRE -400 64 -464 64
WIRE 272 64 144 64
WIRE 368 64 368 16
WIRE 368 64 352 64
WIRE 384 64 368 64
WIRE 512 64 464 64
WIRE 704 64 608 64
WIRE 1280 64 1280 -64
WIRE 1312 64 1280 64
WIRE -544 80 -544 64
WIRE -224 80 -224 -80
WIRE -224 80 -336 80
WIRE -208 80 -224 80
WIRE -128 80 -128 -16
WIRE -128 80 -144 80
WIRE -112 80 -128 80
WIRE -32 80 -48 80
WIRE 80 80 -32 80
WIRE 864 80 864 16
WIRE 864 80 768 80
WIRE 928 80 928 16
WIRE 928 80 864 80
WIRE 1632 80 1376 80
WIRE -400 96 -448 96
WIRE 512 96 512 64
WIRE 704 96 512 96
WIRE 1216 96 1216 16
WIRE 1312 96 1216 96
WIRE -752 128 -752 112
WIRE -752 128 -976 128
WIRE -32 128 -32 80
WIRE -752 144 -752 128
WIRE -816 160 -816 -208
WIRE -816 160 -880 160
WIRE 512 160 512 96
WIRE 928 160 928 80
WIRE 960 160 928 160
WIRE 1072 160 1040 160
WIRE 1088 160 1072 160
WIRE 1216 160 1216 96
WIRE 1216 160 1168 160
WIRE 608 176 608 64
WIRE 640 176 608 176
WIRE 864 176 864 80
WIRE 864 176 720 176
WIRE 0 192 0 48
WIRE 48 192 0 192
WIRE 128 192 48 192
WIRE 240 192 240 -16
WIRE 240 192 208 192
WIRE 1072 192 1072 160
WIRE -880 224 -880 160
WIRE -976 240 -976 128
WIRE -912 240 -976 240
WIRE 48 240 48 192
WIRE -752 256 -752 224
WIRE -752 256 -848 256
WIRE -640 256 -752 256
WIRE -544 256 -544 160
WIRE -544 256 -560 256
WIRE -464 256 -544 256
WIRE -448 256 -448 96
WIRE -448 256 -464 256
WIRE 608 256 608 176
WIRE -912 272 -1360 272
WIRE -464 288 -464 256
WIRE -464 448 -464 368
WIRE -32 448 -32 208
WIRE -32 448 -464 448
WIRE 48 448 48 320
WIRE 48 448 -32 448
WIRE 512 448 512 224
WIRE 512 448 48 448
WIRE 608 448 608 336
WIRE 608 448 512 448
WIRE 1072 448 1072 256
WIRE 1072 448 608 448
WIRE -1168 528 -1168 -16
WIRE -880 528 -880 288
WIRE -880 528 -1168 528
WIRE -368 528 -368 112
WIRE -368 528 -880 528
WIRE 112 528 112 96
WIRE 112 528 -368 528
WIRE 384 528 112 528
WIRE 736 528 736 112
WIRE 736 528 384 528
WIRE 1344 528 1344 112
WIRE 1344 528 736 528
WIRE 384 560 384 528
WIRE 512 592 512 448
FLAG 512 592 0
SYMBOL cap -144 64 R90
WINDOW 0 0 32 VBottom 2
WINDOW 3 32 32 VTop 2
SYMATTR InstName C1
SYMBOL cap -48 64 R90
WINDOW 0 0 32 VBottom 2
WINDOW 3 32 32 VTop 2
SYMATTR InstName C2
SYMBOL res 80 -32 R90
WINDOW 0 0 56 VBottom 2
WINDOW 3 32 56 VTop 2
SYMATTR InstName R1
SYMBOL res 224 176 R90
WINDOW 0 0 56 VBottom 2
WINDOW 3 32 56 VTop 2
SYMATTR InstName R2
SYMBOL res -16 224 R180
WINDOW 0 36 76 Left 2
WINDOW 3 36 40 Left 2
SYMATTR InstName R3
SYMBOL res 64 336 R180
WINDOW 0 36 76 Left 2
WINDOW 3 36 40 Left 2
SYMATTR InstName R4
SYMBOL TL074 112 64 R0
SYMATTR InstName U1
SYMBOL res 368 48 R90
WINDOW 0 0 56 VBottom 2
WINDOW 3 32 56 VTop 2
SYMATTR InstName R5
SYMATTR Value 677.2
SYMBOL res 480 48 R90
WINDOW 0 0 56 VBottom 2
WINDOW 3 32 56 VTop 2
SYMATTR InstName R6
SYMATTR Value 677.2
SYMBOL res 736 160 R90
WINDOW 0 0 56 VBottom 2
WINDOW 3 32 56 VTop 2
SYMATTR InstName R7
SYMBOL res 624 352 R180
WINDOW 0 36 76 Left 2
WINDOW 3 36 40 Left 2
SYMATTR InstName R8
SYMBOL cap 592 0 R90
WINDOW 0 0 32 VBottom 2
WINDOW 3 32 32 VTop 2
SYMATTR InstName C3
SYMATTR Value 0.47µ
SYMBOL cap 528 224 R180
WINDOW 0 24 56 Left 2
WINDOW 3 24 8 Left 2
SYMATTR InstName C4
SYMATTR Value 0.47µ
SYMBOL TL074 736 80 R0
SYMATTR InstName U2
SYMBOL cap 1024 0 R90
WINDOW 0 0 32 VBottom 2
WINDOW 3 32 32 VTop 2
SYMATTR InstName C5
SYMATTR Value 0.47µ
SYMBOL cap 1136 0 R90
WINDOW 0 0 32 VBottom 2
WINDOW 3 32 32 VTop 2
SYMATTR InstName C6
SYMATTR Value 0.47µ
SYMBOL res 1056 144 R90
WINDOW 0 0 56 VBottom 2
WINDOW 3 32 56 VTop 2
SYMATTR InstName R9
SYMATTR Value 6.8k
SYMBOL res 1184 144 R90
WINDOW 0 0 56 VBottom 2
WINDOW 3 32 56 VTop 2
SYMATTR InstName R10
SYMATTR Value 6.8k
SYMBOL res 1200 -80 R90
WINDOW 0 0 56 VBottom 2
WINDOW 3 32 56 VTop 2
SYMATTR InstName R11
SYMATTR Value 3.4k
SYMBOL cap 1088 256 R180
WINDOW 0 24 56 Left 2
WINDOW 3 24 8 Left 2
SYMATTR InstName C7
SYMATTR Value 1µ
SYMBOL TL074 1344 80 R0
SYMATTR InstName U3
SYMBOL TL074 -880 -80 R0
SYMATTR InstName U4
SYMBOL TL074 -880 256 R0
SYMATTR InstName U5
SYMBOL TL074 -368 80 R0
SYMATTR InstName U6
SYMBOL res -768 -96 R0
SYMATTR InstName R12
SYMATTR Value 25k
SYMBOL res -768 16 R0
SYMATTR InstName R13
SYMATTR Value 10k
SYMBOL res -768 128 R0
SYMATTR InstName R14
SYMATTR Value 25k
SYMBOL res -544 -96 R90
WINDOW 0 0 56 VBottom 2
WINDOW 3 32 56 VTop 2
SYMATTR InstName R15
SYMATTR Value 10K
SYMBOL res -240 -96 R90
WINDOW 0 0 56 VBottom 2
WINDOW 3 32 56 VTop 2
SYMATTR InstName R16
SYMATTR Value 10k
SYMBOL res -544 240 R90
WINDOW 0 0 56 VBottom 2
WINDOW 3 32 56 VTop 2
SYMATTR InstName R17
SYMATTR Value 10k
SYMBOL res -480 272 R0
SYMATTR InstName R18
SYMATTR Value 10k
SYMBOL res -560 -48 R0
WINDOW 3 -86 71 Left 2
SYMATTR InstName R19
SYMATTR Value 1000k
SYMBOL res -560 64 R0
WINDOW 3 -86 67 Left 2
SYMATTR InstName R20
SYMATTR Value 1000k
