Version 4
SHEET 1 880 680
WIRE 112 16 48 16
WIRE 288 16 192 16
WIRE -32 96 -64 96
WIRE 48 96 48 16
WIRE 48 96 32 96
WIRE 80 96 48 96
WIRE 224 96 144 96
WIRE 288 144 288 16
WIRE 320 144 288 144
WIRE -64 160 -64 96
WIRE -64 160 -144 160
WIRE 496 160 384 160
WIRE 224 176 224 96
WIRE 320 176 224 176
WIRE -64 240 -64 160
WIRE -32 240 -64 240
WIRE 80 240 48 240
WIRE 96 240 80 240
WIRE 224 240 224 176
WIRE 224 240 176 240
WIRE 80 272 80 240
WIRE 80 352 80 336
FLAG 80 352 0
SYMBOL cap 32 80 R90
WINDOW 0 0 32 VBottom 2
WINDOW 3 32 32 VTop 2
SYMATTR InstName C1
SYMATTR Value 0.47µ
SYMBOL cap 144 80 R90
WINDOW 0 0 32 VBottom 2
WINDOW 3 32 32 VTop 2
SYMATTR InstName C2
SYMATTR Value 0.47µ
SYMBOL res 64 224 R90
WINDOW 0 0 56 VBottom 2
WINDOW 3 32 56 VTop 2
SYMATTR InstName R1
SYMATTR Value 6.8k
SYMBOL res 192 224 R90
WINDOW 0 0 56 VBottom 2
WINDOW 3 32 56 VTop 2
SYMATTR InstName R2
SYMATTR Value 6.8k
SYMBOL res 208 0 R90
WINDOW 0 0 56 VBottom 2
WINDOW 3 32 56 VTop 2
SYMATTR InstName R3
SYMATTR Value 3.4k
SYMBOL cap 96 336 R180
WINDOW 0 24 56 Left 2
WINDOW 3 24 8 Left 2
SYMATTR InstName C3
SYMATTR Value 1µ
SYMBOL TL074 352 160 R0
SYMATTR InstName U2
